IEEE123Master/OutputDSS.dss
Clear

New Circuit.ieee123_Reduced bus1=150 basekv=4.16 pu=1 R1=0 X1=0.0001 R0=0 X0=0.0001
New Line.149_1 Phases=3 bus1=149.1.2.3 bus2=1.1.2.3 Units=km Length=0.4 Rmatrix=[0.0866666669884    0.0295454549903    0.0290719699951| 0.0295454549903    0.0883712120085    0.0299242420064| 0.0290719699951    0.0299242420064     0.087405303006|] Xmatrix=[ 0.204166667001    0.0950189390015    0.0728977270016| 0.0950189390015     0.198522726991    0.0802272729977| 0.0728977270016    0.0802272729977        0.201723485|] Cmatrix=[0                  0                  0| 0                  0                  0| 0                  0                  0|]
New Line.1_7 Phases=3 bus1=1.1.2.3 bus2=7.1.2.3 Units=km Length=0.3 Rmatrix=[0.086666667        0.029545455         0.02907197| 0.029545455        0.088371212        0.029924242|  0.02907197        0.029924242        0.087405303|] Xmatrix=[0.204166667        0.095018939        0.072897727| 0.095018939        0.198522727        0.080227273| 0.072897727        0.080227273        0.201723485|] Cmatrix=[0                  0                  0| 0                  0                  0| 0                  0                  0|]
New Line.1_2 Phases=1 bus1=1.2 bus2=2.2 Units=km Length=0.175 Rmatrix=0.25174242 Xmatrix=0.25520833 Cmatrix=0
New Line.1_3 Phases=1 bus1=1.3 bus2=3.3 Units=km Length=0.25 Rmatrix=0.25174242 Xmatrix=0.25520833 Cmatrix=0
New Line.3_4 Phases=1 bus1=3.3 bus2=4.3 Units=km Length=0.2 Rmatrix=0.25174242 Xmatrix=0.25520833 Cmatrix=0
New Line.3_5 Phases=1 bus1=3.3 bus2=5.3 Units=km Length=0.325 Rmatrix=0.25174242 Xmatrix=0.25520833 Cmatrix=0
New Line.7_8 Phases=3 bus1=7.1.2.3 bus2=8.1.2.3 Units=km Length=0.2 Rmatrix=[0.086666667        0.029545455         0.02907197| 0.029545455        0.088371212        0.029924242|  0.02907197        0.029924242        0.087405303|] Xmatrix=[0.204166667        0.095018939        0.072897727| 0.095018939        0.198522727        0.080227273| 0.072897727        0.080227273        0.201723485|] Cmatrix=[0                  0                  0| 0                  0                  0| 0                  0                  0|]
New Line.5_6 Phases=1 bus1=5.3 bus2=6.3 Units=km Length=0.25 Rmatrix=0.25174242 Xmatrix=0.25520833 Cmatrix=0
New Line.8_9 Phases=1 bus1=8.1 bus2=9.1 Units=km Length=0.225 Rmatrix=0.25174242 Xmatrix=0.25520833 Cmatrix=0
New Line.8_13 Phases=3 bus1=8.1.2.3 bus2=13.1.2.3 Units=km Length=0.3 Rmatrix=[0.0866666669475    0.0295454549878    0.0290719699952| 0.0295454549878    0.0883712119794    0.0299242420021| 0.0290719699952    0.0299242420021    0.0874053029879|] Xmatrix=[ 0.204166667012    0.0950189390084    0.0728977270095| 0.0950189390084     0.198522727025    0.0802272730094| 0.0728977270095    0.0802272730094     0.201723485017|] Cmatrix=[0                  0                  0| 0                  0                  0| 0                  0                  0|]
New Line.8_12 Phases=1 bus1=8.2 bus2=12.2 Units=km Length=0.225 Rmatrix=0.25174242 Xmatrix=0.25520833 Cmatrix=0
New Line.13_18 Phases=3 bus1=13.1.2.3 bus2=18.1.2.3 Units=km Length=0.825 Rmatrix=[0.0883701706396     0.029923848351    0.0295444739947|  0.029923848351    0.0874049878073    0.0290707228781| 0.0295444739947    0.0290707228781    0.0866653772752|] Xmatrix=[  0.19852187928    0.0802264632328    0.0950172623618| 0.0802264632328     0.201722601956    0.0728965576264| 0.0950172623618    0.0728965576264     0.204164398887|] Cmatrix=[0                  0                  0| 0                  0                  0| 0                  0                  0|]
New Line.13_152 Phases=3 bus1=13.1.2.3 bus2=152.1.2.3 Units=km Length=0.001 Rmatrix=[0.001                  0                  0|     0              0.001                  0|     0                  0   0.00100000000003|] Xmatrix=[0                  0                  0| 0                  0                  0| 0                  0                  0|] Cmatrix=[0                  0                  0| 0                  0                  0| 0                  0                  0|]
New Line.13_34 Phases=1 bus1=13.3 bus2=34.3 Units=km Length=0.15 Rmatrix=0.25174242 Xmatrix=0.25520833 Cmatrix=0
New Line.9r_14 Phases=1 bus1=9r.1 bus2=14.1 Units=km Length=0.425 Rmatrix=0.25174242 Xmatrix=0.25520833 Cmatrix=0
New Line.14_11 Phases=1 bus1=14.1 bus2=11.1 Units=km Length=0.25 Rmatrix=0.25174242 Xmatrix=0.25520833 Cmatrix=0
New Line.14_10 Phases=1 bus1=14.1 bus2=10.1 Units=km Length=0.25 Rmatrix=0.25174242 Xmatrix=0.25520833 Cmatrix=0
New Line.34_15 Phases=1 bus1=34.3 bus2=15.3 Units=km Length=0.1 Rmatrix=0.25174242 Xmatrix=0.25520833 Cmatrix=0
New Line.18_19 Phases=1 bus1=18.1 bus2=19.1 Units=km Length=0.25 Rmatrix=0.25174242 Xmatrix=0.25520833 Cmatrix=0
New Line.18_21 Phases=3 bus1=18.1.2.3 bus2=21.1.2.3 Units=km Length=0.3 Rmatrix=[0.0883712119959    0.0299242399916    0.0295454550044| 0.0299242399916    0.0874053029893    0.0290719699602| 0.0295454550044    0.0290719699602    0.0866666669489|] Xmatrix=[ 0.198522727021    0.0802272730033    0.0950189390037| 0.0802272730033     0.201723484983    0.0728977270087| 0.0950189390037    0.0728977270087     0.204166667036|] Cmatrix=[0                  0                  0| 0                  0                  0| 0                  0                  0|]
New Line.18_135 Phases=3 bus1=18.1.2.3 bus2=135.1.2.3 Units=km Length=0.001 Rmatrix=[0.000999999999973                  0                  0|                 0  0.000999999999973                  0|                 0                  0   0.00100000000003|] Xmatrix=[0                  0                  0| 0                  0                  0| 0                  0                  0|] Cmatrix=[0                  0                  0| 0                  0                  0| 0                  0                  0|]
New Line.15_16 Phases=1 bus1=15.3 bus2=16.3 Units=km Length=0.375 Rmatrix=0.25174242 Xmatrix=0.25520833 Cmatrix=0
New Line.15_17 Phases=1 bus1=15.3 bus2=17.3 Units=km Length=0.35 Rmatrix=0.25174242 Xmatrix=0.25520833 Cmatrix=0
New Line.19_20 Phases=1 bus1=19.1 bus2=20.1 Units=km Length=0.325 Rmatrix=0.25174242 Xmatrix=0.25520833 Cmatrix=0
New Line.21_23 Phases=3 bus1=21.1.2.3 bus2=23.1.2.3 Units=km Length=0.25 Rmatrix=[0.088371212         0.02992424        0.029545455|  0.02992424        0.087405303         0.02907197| 0.029545455         0.02907197        0.086666667|] Xmatrix=[0.198522727        0.080227273        0.095018939| 0.080227273        0.201723485        0.072897727| 0.095018939        0.072897727        0.204166667|] Cmatrix=[0                  0                  0| 0                  0                  0| 0                  0                  0|]
New Line.21_22 Phases=1 bus1=21.2 bus2=22.2 Units=km Length=0.525 Rmatrix=0.25174242 Xmatrix=0.25520833 Cmatrix=0
New Line.23_25 Phases=3 bus1=23.1.2.3 bus2=25.1.2.3 Units=km Length=0.275 Rmatrix=[0.0883712119999         0.02992424    0.0295454549998|      0.02992424        0.087405303    0.0290719699999| 0.0295454549998    0.0290719699999    0.0866666669996|] Xmatrix=[    0.198522727        0.080227273    0.0950189389998|     0.080227273        0.201723485    0.0728977269999| 0.0950189389998    0.0728977269999        0.204166667|] Cmatrix=[0                  0                  0| 0                  0                  0| 0                  0                  0|]
New Line.23_24 Phases=1 bus1=23.3 bus2=24.3 Units=km Length=0.55 Rmatrix=0.25174242 Xmatrix=0.25520833 Cmatrix=0
New Line.25_28 Phases=3 bus1=25.1.2.3 bus2=28.1.2.3 Units=km Length=0.2 Rmatrix=[0.088371212         0.02992424        0.029545455|  0.02992424        0.087405303    0.0290719700001| 0.029545455    0.0290719700001    0.0866666670001|] Xmatrix=[    0.198522727        0.080227273    0.0950189389999|     0.080227273        0.201723485    0.0728977270001| 0.0950189389999    0.0728977270001        0.204166667|] Cmatrix=[0                  0                  0| 0                  0                  0| 0                  0                  0|]
New Line.25r_26 Phases=2 bus1=25r.1.3 bus2=26.1.3 Units=km Length=0.35 Rmatrix=[0.0866666669999         0.02907197|      0.02907197    0.0874053029998|] Xmatrix=[0.204166667        0.072897727| 0.072897727        0.201723485|] Cmatrix=[0                  0| 0                  0|]
New Line.26_27 Phases=2 bus1=26.1.3 bus2=27.1.3 Units=km Length=0.275 Rmatrix=[0.086666667         0.02907197|  0.02907197        0.087405303|] Xmatrix=[0.204166667        0.072897727| 0.072897727        0.201723485|] Cmatrix=[0                  0| 0                  0|]
New Line.26_31 Phases=1 bus1=26.3 bus2=31.3 Units=km Length=0.225 Rmatrix=0.25174242 Xmatrix=0.25520833 Cmatrix=0
New Line.28_29 Phases=3 bus1=28.1.2.3 bus2=29.1.2.3 Units=km Length=0.3 Rmatrix=[0.088371212         0.02992424        0.029545455|  0.02992424        0.087405303         0.02907197| 0.029545455         0.02907197        0.086666667|] Xmatrix=[0.198522727        0.080227273        0.095018939| 0.080227273        0.201723485        0.072897727| 0.095018939        0.072897727        0.204166667|] Cmatrix=[0                  0                  0| 0                  0                  0| 0                  0                  0|]
New Line.27_33 Phases=1 bus1=27.1 bus2=33.1 Units=km Length=0.5 Rmatrix=0.25174242 Xmatrix=0.25520833 Cmatrix=0
New Line.31_32 Phases=1 bus1=31.3 bus2=32.3 Units=km Length=0.3 Rmatrix=0.25174242 Xmatrix=0.25520833 Cmatrix=0
New Line.29_30 Phases=3 bus1=29.1.2.3 bus2=30.1.2.3 Units=km Length=0.35 Rmatrix=[0.088371212         0.02992424        0.029545455|  0.02992424        0.087405303         0.02907197| 0.029545455         0.02907197        0.086666667|] Xmatrix=[0.198522727        0.080227273        0.095018939| 0.080227273        0.201723485        0.072897727| 0.095018939        0.072897727        0.204166667|] Cmatrix=[0                  0                  0| 0                  0                  0| 0                  0                  0|]
New Line.30_250 Phases=3 bus1=30.1.2.3 bus2=250.1.2.3 Units=km Length=0.2 Rmatrix=[0.088371212         0.02992424        0.029545455|  0.02992424        0.087405303         0.02907197| 0.029545455         0.02907197        0.086666667|] Xmatrix=[0.198522727        0.080227273        0.095018939| 0.080227273        0.201723485        0.072897727| 0.095018939        0.072897727        0.204166667|] Cmatrix=[0                  0                  0| 0                  0                  0| 0                  0                  0|]
New Line.35_36 Phases=2 bus1=35.1.2 bus2=36.1.2 Units=km Length=0.65 Rmatrix=[0.086666667         0.02907197|  0.02907197        0.087405303|] Xmatrix=[0.204166667        0.072897727| 0.072897727        0.201723485|] Cmatrix=[0                  0| 0                  0|]
New Line.35_40 Phases=3 bus1=35.1.2.3 bus2=40.1.2.3 Units=km Length=0.25 Rmatrix=[0.086666667        0.029545455         0.02907197| 0.029545455        0.088371212        0.029924242|  0.02907197        0.029924242        0.087405303|] Xmatrix=[0.204166667        0.095018939        0.072897727| 0.095018939        0.198522727        0.080227273| 0.072897727        0.080227273        0.201723485|] Cmatrix=[0                  0                  0| 0                  0                  0| 0                  0                  0|]
New Line.36_37 Phases=1 bus1=36.1 bus2=37.1 Units=km Length=0.3 Rmatrix=0.25174242 Xmatrix=0.25520833 Cmatrix=0
New Line.36_38 Phases=1 bus1=36.2 bus2=38.2 Units=km Length=0.25 Rmatrix=0.25174242 Xmatrix=0.25520833 Cmatrix=0
New Line.40_42 Phases=3 bus1=40.1.2.3 bus2=42.1.2.3 Units=km Length=0.25 Rmatrix=[0.086666667        0.029545455         0.02907197| 0.029545455        0.088371212        0.029924242|  0.02907197        0.029924242        0.087405303|] Xmatrix=[0.204166667        0.095018939        0.072897727| 0.095018939        0.198522727        0.080227273| 0.072897727        0.080227273        0.201723485|] Cmatrix=[0                  0                  0| 0                  0                  0| 0                  0                  0|]
New Line.40_41 Phases=1 bus1=40.3 bus2=41.3 Units=km Length=0.325 Rmatrix=0.25174242 Xmatrix=0.25520833 Cmatrix=0
New Line.38_39 Phases=1 bus1=38.2 bus2=39.2 Units=km Length=0.325 Rmatrix=0.25174242 Xmatrix=0.25520833 Cmatrix=0
New Line.42_44 Phases=3 bus1=42.1.2.3 bus2=44.1.2.3 Units=km Length=0.2 Rmatrix=[0.086666667        0.029545455         0.02907197| 0.029545455        0.088371212        0.029924242|  0.02907197        0.029924242        0.087405303|] Xmatrix=[0.204166667        0.095018939        0.072897727| 0.095018939        0.198522727        0.080227273| 0.072897727        0.080227273        0.201723485|] Cmatrix=[0                  0                  0| 0                  0                  0| 0                  0                  0|]
New Line.42_43 Phases=1 bus1=42.2 bus2=43.2 Units=km Length=0.5 Rmatrix=0.25174242 Xmatrix=0.25520833 Cmatrix=0
New Line.44_45 Phases=1 bus1=44.1 bus2=45.1 Units=km Length=0.2 Rmatrix=0.25174242 Xmatrix=0.25520833 Cmatrix=0
New Line.44_47 Phases=3 bus1=44.1.2.3 bus2=47.1.2.3 Units=km Length=0.25 Rmatrix=[0.086666667        0.029545455         0.02907197| 0.029545455        0.088371212        0.029924242|  0.02907197        0.029924242        0.087405303|] Xmatrix=[0.204166667        0.095018939        0.072897727| 0.095018939        0.198522727        0.080227273| 0.072897727        0.080227273        0.201723485|] Cmatrix=[0                  0                  0| 0                  0                  0| 0                  0                  0|]
New Line.45_46 Phases=1 bus1=45.1 bus2=46.1 Units=km Length=0.3 Rmatrix=0.25174242 Xmatrix=0.25520833 Cmatrix=0
New Line.47_48 Phases=3 bus1=47.1.2.3 bus2=48.1.2.3 Units=km Length=0.15 Rmatrix=[0.087405303        0.029924242         0.02907197| 0.029924242        0.088371212        0.029545455|  0.02907197        0.029545455        0.086666667|] Xmatrix=[0.201723485        0.080227273        0.072897727| 0.080227273        0.198522727        0.095018939| 0.072897727        0.095018939        0.204166667|] Cmatrix=[0                  0                  0| 0                  0                  0| 0                  0                  0|]
New Line.47_49 Phases=3 bus1=47.1.2.3 bus2=49.1.2.3 Units=km Length=0.25 Rmatrix=[0.087405303        0.029924242         0.02907197| 0.029924242        0.088371212        0.029545455|  0.02907197        0.029545455        0.086666667|] Xmatrix=[0.201723485        0.080227273        0.072897727| 0.080227273        0.198522727        0.095018939| 0.072897727        0.095018939        0.204166667|] Cmatrix=[0                  0                  0| 0                  0                  0| 0                  0                  0|]
New Line.49_50 Phases=3 bus1=49.1.2.3 bus2=50.1.2.3 Units=km Length=0.25 Rmatrix=[0.087405303        0.029924242         0.02907197| 0.029924242        0.088371212        0.029545455|  0.02907197        0.029545455        0.086666667|] Xmatrix=[0.201723485        0.080227273        0.072897727| 0.080227273        0.198522727        0.095018939| 0.072897727        0.095018939        0.204166667|] Cmatrix=[0                  0                  0| 0                  0                  0| 0                  0                  0|]
New Line.50_51 Phases=3 bus1=50.1.2.3 bus2=51.1.2.3 Units=km Length=0.25 Rmatrix=[0.087405303        0.029924242         0.02907197| 0.029924242        0.088371212        0.029545455|  0.02907197        0.029545455        0.086666667|] Xmatrix=[0.201723485        0.080227273        0.072897727| 0.080227273        0.198522727        0.095018939| 0.072897727        0.095018939        0.204166667|] Cmatrix=[0                  0                  0| 0                  0                  0| 0                  0                  0|]
New Line.51_151 Phases=3 bus1=51.1.2.3 bus2=151.1.2.3 Units=km Length=0.5 Rmatrix=[ 0.087405302902    0.0299242419389    0.0290719700256| 0.0299242419389    0.0883712118732     0.029545455037| 0.0290719700256     0.029545455037    0.0866666670641|] Xmatrix=[ 0.201723485051    0.0802272730374    0.0728977269849| 0.0802272730374     0.198522727058    0.0950189389807| 0.0728977269849    0.0950189389807     0.204166666925|] Cmatrix=[0                  0                  0| 0                  0                  0| 0                  0                  0|]
New Line.151_300_open Phases=3 bus1=151.1.2.3 bus2=300_open.1.2.3 Units=km Length=0.001 Rmatrix=[0.000999999999862                  0                  0|                 0  0.000999999999917                  0|                 0                  0   0.00100000000003|] Xmatrix=[0                  0                  0| 0                  0                  0| 0                  0                  0|] Cmatrix=[0                  0                  0| 0                  0                  0| 0                  0                  0|]
New Line.52_53 Phases=3 bus1=52.1.2.3 bus2=53.1.2.3 Units=km Length=0.2 Rmatrix=[0.086666667        0.029545455         0.02907197| 0.029545455        0.088371212        0.029924242|  0.02907197        0.029924242        0.087405303|] Xmatrix=[0.204166667        0.095018939        0.072897727| 0.095018939        0.198522727        0.080227273| 0.072897727        0.080227273        0.201723485|] Cmatrix=[0                  0                  0| 0                  0                  0| 0                  0                  0|]
New Line.53_54 Phases=3 bus1=53.1.2.3 bus2=54.1.2.3 Units=km Length=0.125 Rmatrix=[0.0866666670044    0.0295454550076    0.0290719699998| 0.0295454550076    0.0883712120037    0.0299242419997| 0.0290719699998    0.0299242419997    0.0874053029999|] Xmatrix=[    0.204166667    0.0950189389926    0.0728977270035| 0.0950189389926     0.198522726997    0.0802272730016| 0.0728977270035    0.0802272730016     0.201723485001|] Cmatrix=[0                  0                  0| 0                  0                  0| 0                  0                  0|]
New Line.54_55 Phases=3 bus1=54.1.2.3 bus2=55.1.2.3 Units=km Length=0.275 Rmatrix=[0.0866666669821    0.0295454549911    0.0290719699935| 0.0295454549911     0.088371212003    0.0299242420024| 0.0290719699935    0.0299242420024        0.087405303|] Xmatrix=[ 0.204166667021    0.0950189390086    0.0728977270073| 0.0950189390086        0.198522727    0.0802272730002| 0.0728977270073    0.0802272730002        0.201723485|] Cmatrix=[0                  0                  0| 0                  0                  0| 0                  0                  0|]
New Line.54_57 Phases=3 bus1=54.1.2.3 bus2=57.1.2.3 Units=km Length=0.35 Rmatrix=[0.0874053030187    0.0290719700072    0.0299242420083| 0.0290719700072    0.0866666670033    0.0295454550034| 0.0299242420083    0.0295454550034    0.0883712120043|] Xmatrix=[ 0.201723484952    0.0728977269831    0.0802272729817| 0.0728977269831     0.204166667007    0.0950189390075| 0.0802272729817    0.0950189390075     0.198522727003|] Cmatrix=[0                  0                  0| 0                  0                  0| 0                  0                  0|]
New Line.54_94_open Phases=1 bus1=54.1 bus2=94_open.1 Units=km Length=0.001 Rmatrix=0.001 Xmatrix=0 Cmatrix=0
New Line.55_56 Phases=3 bus1=55.1.2.3 bus2=56.1.2.3 Units=km Length=0.275 Rmatrix=[0.086666667        0.029545455         0.02907197| 0.029545455        0.088371212        0.029924242|  0.02907197        0.029924242        0.087405303|] Xmatrix=[0.204166667        0.095018939        0.072897727| 0.095018939        0.198522727        0.080227273| 0.072897727        0.080227273        0.201723485|] Cmatrix=[0                  0                  0| 0                  0                  0| 0                  0                  0|]
New Line.57_60 Phases=3 bus1=57.1.2.3 bus2=60.1.2.3 Units=km Length=0.75 Rmatrix=[0.0874053028504    0.0290719699942    0.0299242420167| 0.0290719699942    0.0866666669918    0.0295454550389| 0.0299242420167    0.0295454550389    0.0883712120431|] Xmatrix=[ 0.201723485004    0.0728977270257    0.0802272729755| 0.0728977270257     0.204166667033    0.0950189389817| 0.0802272729755    0.0950189389817     0.198522726961|] Cmatrix=[0                  0                  0| 0                  0                  0| 0                  0                  0|]
New Line.57_58 Phases=1 bus1=57.2 bus2=58.2 Units=km Length=0.25 Rmatrix=0.25174242 Xmatrix=0.25520833 Cmatrix=0
New Line.58_59 Phases=1 bus1=58.2 bus2=59.2 Units=km Length=0.25 Rmatrix=0.25174242 Xmatrix=0.25520833 Cmatrix=0
New Line.60_61 Phases=3 bus1=60.1.2.3 bus2=61.1.2.3 Units=km Length=0.55 Rmatrix=[0.0883743920205    0.0295467791206    0.0299254566859| 0.0295467791206    0.0866672929889    0.0290725652618| 0.0299254566859    0.0290725652618    0.0874057104944|] Xmatrix=[  0.19852351627    0.0950195527928    0.0802276808412| 0.0950195527928     0.204166978209    0.0728979119462| 0.0802276808412    0.0728979119462     0.201723735676|] Cmatrix=[0                  0                  0| 0                  0                  0| 0                  0                  0|]
New Line.60_62 Phases=3 bus1=60.1.2.3 bus2=62.1.2.3 Units=km Length=0.25 Rmatrix=[ 0.288049241993    0.0984469699591     0.093257575977| 0.0984469699591     0.290321970042    0.0984469700375|  0.093257575977    0.0984469700375     0.288049241883|] Xmatrix=[ 0.142443182094    0.0525568180953    0.0408522730733| 0.0525568180953      0.13564393895    0.0525568179336| 0.0408522730733    0.0525568179336     0.142443181972|] Cmatrix=[0                  0                  0| 0                  0                  0| 0                  0                  0|]
New Line.60_160 Phases=3 bus1=60.1.2.3 bus2=160.1.2.3 Units=km Length=0.001 Rmatrix=[0.000999999999973                  0                  0|                 0   0.00100000000003                  0|                 0                  0   0.00100000000003|] Xmatrix=[0                  0                  0| 0                  0                  0| 0                  0                  0|] Cmatrix=[0                  0                  0| 0                  0                  0| 0                  0                  0|]
New Line.61_61s Phases=3 bus1=61.1.2.3 bus2=61s.1.2.3 Units=km Length=0.001 Rmatrix=[0.000999999999966                  0                  0|                 0   0.00100000000002                  0|                 0                  0   0.00100000000003|] Xmatrix=[0                  0                  0| 0                  0                  0| 0                  0                  0|] Cmatrix=[0                  0                  0| 0                  0                  0| 0                  0                  0|]
New Line.62_63 Phases=3 bus1=62.1.2.3 bus2=63.1.2.3 Units=km Length=0.175 Rmatrix=[0.288049242         0.09844697        0.093257576|  0.09844697         0.29032197         0.09844697| 0.093257576         0.09844697        0.288049242|] Xmatrix=[0.142443182        0.052556818        0.040852273| 0.052556818        0.135643939        0.052556818| 0.040852273        0.052556818        0.142443182|] Cmatrix=[0                  0                  0| 0                  0                  0| 0                  0                  0|]
New Line.63_64 Phases=3 bus1=63.1.2.3 bus2=64.1.2.3 Units=km Length=0.35 Rmatrix=[0.288049242         0.09844697        0.093257576|  0.09844697         0.29032197         0.09844697| 0.093257576         0.09844697        0.288049242|] Xmatrix=[0.142443182        0.052556818        0.040852273| 0.052556818        0.135643939        0.052556818| 0.040852273        0.052556818        0.142443182|] Cmatrix=[0                  0                  0| 0                  0                  0| 0                  0                  0|]
New Line.64_65 Phases=3 bus1=64.1.2.3 bus2=65.1.2.3 Units=km Length=0.425 Rmatrix=[0.288049242         0.09844697        0.093257576|  0.09844697         0.29032197         0.09844697| 0.093257576         0.09844697        0.288049242|] Xmatrix=[0.142443182        0.052556818        0.040852273| 0.052556818        0.135643939        0.052556818| 0.040852273        0.052556818        0.142443182|] Cmatrix=[0                  0                  0| 0                  0                  0| 0                  0                  0|]
New Line.65_66 Phases=3 bus1=65.1.2.3 bus2=66.1.2.3 Units=km Length=0.325 Rmatrix=[0.288049242         0.09844697        0.093257576|  0.09844697         0.29032197         0.09844697| 0.093257576         0.09844697        0.288049242|] Xmatrix=[0.142443182        0.052556818        0.040852273| 0.052556818        0.135643939        0.052556818| 0.040852273        0.052556818        0.142443182|] Cmatrix=[0                  0                  0| 0                  0                  0| 0                  0                  0|]
New Line.67_68 Phases=1 bus1=67.1 bus2=68.1 Units=km Length=0.2 Rmatrix=0.25174242 Xmatrix=0.25520833 Cmatrix=0
New Line.67_72 Phases=3 bus1=67.1.2.3 bus2=72.1.2.3 Units=km Length=0.275 Rmatrix=[0.087405303         0.02907197        0.029924242|  0.02907197        0.086666667        0.029545455| 0.029924242        0.029545455        0.088371212|] Xmatrix=[0.201723485        0.072897727        0.080227273| 0.072897727        0.204166667        0.095018939| 0.080227273        0.095018939        0.198522727|] Cmatrix=[0                  0                  0| 0                  0                  0| 0                  0                  0|]
New Line.67_97 Phases=3 bus1=67.1.2.3 bus2=97.1.2.3 Units=km Length=0.25 Rmatrix=[0.0874053030408    0.0290719700305    0.0299242420322| 0.0290719700305    0.0866666670264    0.0295454550234| 0.0299242420322    0.0295454550234    0.0883712120439|] Xmatrix=[ 0.201723484929    0.0728977269856    0.0802272729755| 0.0728977269856     0.204166666983    0.0950189389723| 0.0802272729755    0.0950189389723     0.198522726942|] Cmatrix=[0                  0                  0| 0                  0                  0| 0                  0                  0|]
New Line.68_69 Phases=1 bus1=68.1 bus2=69.1 Units=km Length=0.275 Rmatrix=0.25174242 Xmatrix=0.25520833 Cmatrix=0
New Line.72_76 Phases=3 bus1=72.1.2.3 bus2=76.1.2.3 Units=km Length=0.2 Rmatrix=[0.087405303         0.02907197        0.029924242|  0.02907197        0.086666667        0.029545455| 0.029924242        0.029545455        0.088371212|] Xmatrix=[0.201723485        0.072897727        0.080227273| 0.072897727        0.204166667        0.095018939| 0.080227273        0.095018939        0.198522727|] Cmatrix=[0                  0                  0| 0                  0                  0| 0                  0                  0|]
New Line.72_73 Phases=1 bus1=72.3 bus2=73.3 Units=km Length=0.275 Rmatrix=0.25174242 Xmatrix=0.25520833 Cmatrix=0
New Line.97_98 Phases=3 bus1=97.1.2.3 bus2=98.1.2.3 Units=km Length=0.275 Rmatrix=[0.0874053029825    0.0290719700015    0.0299242419918| 0.0290719700015    0.0866666670264     0.029545455008| 0.0299242419918     0.029545455008    0.0883712120101|] Xmatrix=[ 0.201723485031    0.0728977269998    0.0802272730089| 0.0728977269998     0.204166666978    0.0950189390032| 0.0802272730089    0.0950189390032     0.198522727007|] Cmatrix=[0                  0                  0| 0                  0                  0| 0                  0                  0|]
New Line.97_197 Phases=3 bus1=97.1.2.3 bus2=197.1.2.3 Units=km Length=0.001 Rmatrix=[0.00100000000004                  0                  0|                0  0.000999999999981                  0|                0                  0  0.000999999999982|] Xmatrix=[0                  0                  0| 0                  0                  0| 0                  0                  0|] Cmatrix=[0                  0                  0| 0                  0                  0| 0                  0                  0|]
New Line.69_70 Phases=1 bus1=69.1 bus2=70.1 Units=km Length=0.325 Rmatrix=0.25174242 Xmatrix=0.25520833 Cmatrix=0
New Line.70_71 Phases=1 bus1=70.1 bus2=71.1 Units=km Length=0.275 Rmatrix=0.25174242 Xmatrix=0.25520833 Cmatrix=0
New Line.73_74 Phases=1 bus1=73.3 bus2=74.3 Units=km Length=0.35 Rmatrix=0.25174242 Xmatrix=0.25520833 Cmatrix=0
New Line.76_77 Phases=3 bus1=76.1.2.3 bus2=77.1.2.3 Units=km Length=0.4 Rmatrix=[0.086666667         0.02907197        0.029545455|  0.02907197        0.087405303        0.029924242| 0.029545455        0.029924242        0.088371212|] Xmatrix=[0.204166667        0.072897727        0.095018939| 0.072897727        0.201723485        0.080227273| 0.095018939        0.080227273        0.198522727|] Cmatrix=[0                  0                  0| 0                  0                  0| 0                  0                  0|]
New Line.76_86 Phases=3 bus1=76.1.2.3 bus2=86.1.2.3 Units=km Length=0.7 Rmatrix=[0.087405303         0.02907197        0.029924242|  0.02907197        0.086666667        0.029545455| 0.029924242        0.029545455        0.088371212|] Xmatrix=[0.201723485        0.072897727        0.080227273| 0.072897727        0.204166667        0.095018939| 0.080227273        0.095018939        0.198522727|] Cmatrix=[0                  0                  0| 0                  0                  0| 0                  0                  0|]
New Line.74_75 Phases=1 bus1=74.3 bus2=75.3 Units=km Length=0.4 Rmatrix=0.25174242 Xmatrix=0.25520833 Cmatrix=0
New Line.77_78 Phases=3 bus1=77.1.2.3 bus2=78.1.2.3 Units=km Length=0.1 Rmatrix=[0.086666667         0.02907197        0.029545455|  0.02907197        0.087405303        0.029924242| 0.029545455        0.029924242        0.088371212|] Xmatrix=[0.204166667        0.072897727        0.095018939| 0.072897727        0.201723485        0.080227273| 0.095018939        0.080227273        0.198522727|] Cmatrix=[0                  0                  0| 0                  0                  0| 0                  0                  0|]
New Line.86_87 Phases=3 bus1=86.1.2.3 bus2=87.1.2.3 Units=km Length=0.45 Rmatrix=[0.086666667         0.02907197        0.029545455|  0.02907197        0.087405303        0.029924242| 0.029545455        0.029924242        0.088371212|] Xmatrix=[0.204166667        0.072897727        0.095018939| 0.072897727        0.201723485        0.080227273| 0.095018939        0.080227273        0.198522727|] Cmatrix=[0                  0                  0| 0                  0                  0| 0                  0                  0|]
New Line.78_79 Phases=3 bus1=78.1.2.3 bus2=79.1.2.3 Units=km Length=0.225 Rmatrix=[0.086666667         0.02907197        0.029545455|  0.02907197        0.087405303        0.029924242| 0.029545455        0.029924242        0.088371212|] Xmatrix=[0.204166667        0.072897727        0.095018939| 0.072897727        0.201723485        0.080227273| 0.095018939        0.080227273        0.198522727|] Cmatrix=[0                  0                  0| 0                  0                  0| 0                  0                  0|]
New Line.78_80 Phases=3 bus1=78.1.2.3 bus2=80.1.2.3 Units=km Length=0.475 Rmatrix=[0.086666667         0.02907197        0.029545455|  0.02907197        0.087405303        0.029924242| 0.029545455        0.029924242        0.088371212|] Xmatrix=[0.204166667        0.072897727        0.095018939| 0.072897727        0.201723485        0.080227273| 0.095018939        0.080227273        0.198522727|] Cmatrix=[0                  0                  0| 0                  0                  0| 0                  0                  0|]
New Line.80_81 Phases=3 bus1=80.1.2.3 bus2=81.1.2.3 Units=km Length=0.175 Rmatrix=[0.086666667         0.02907197        0.029545455|  0.02907197        0.087405303        0.029924242| 0.029545455        0.029924242        0.088371212|] Xmatrix=[0.204166667        0.072897727        0.095018939| 0.072897727        0.201723485        0.080227273| 0.095018939        0.080227273        0.198522727|] Cmatrix=[0                  0                  0| 0                  0                  0| 0                  0                  0|]
New Line.81_82 Phases=3 bus1=81.1.2.3 bus2=82.1.2.3 Units=km Length=0.25 Rmatrix=[0.086666667         0.02907197        0.029545455|  0.02907197        0.087405303        0.029924242| 0.029545455        0.029924242        0.088371212|] Xmatrix=[0.204166667        0.072897727        0.095018939| 0.072897727        0.201723485        0.080227273| 0.095018939        0.080227273        0.198522727|] Cmatrix=[0                  0                  0| 0                  0                  0| 0                  0                  0|]
New Line.81_84 Phases=1 bus1=81.3 bus2=84.3 Units=km Length=0.675 Rmatrix=0.25174242 Xmatrix=0.25520833 Cmatrix=0
New Line.82_83 Phases=3 bus1=82.1.2.3 bus2=83.1.2.3 Units=km Length=0.25 Rmatrix=[0.086666667         0.02907197        0.029545455|  0.02907197        0.087405303        0.029924242| 0.029545455        0.029924242        0.088371212|] Xmatrix=[0.204166667        0.072897727        0.095018939| 0.072897727        0.201723485        0.080227273| 0.095018939        0.080227273        0.198522727|] Cmatrix=[0                  0                  0| 0                  0                  0| 0                  0                  0|]
New Line.84_85 Phases=1 bus1=84.3 bus2=85.3 Units=km Length=0.475 Rmatrix=0.25174242 Xmatrix=0.25520833 Cmatrix=0
New Line.87_88 Phases=1 bus1=87.1 bus2=88.1 Units=km Length=0.175 Rmatrix=0.25174242 Xmatrix=0.25520833 Cmatrix=0
New Line.87_89 Phases=3 bus1=87.1.2.3 bus2=89.1.2.3 Units=km Length=0.275 Rmatrix=[0.086666667         0.02907197        0.029545455|  0.02907197        0.087405303        0.029924242| 0.029545455        0.029924242        0.088371212|] Xmatrix=[0.204166667        0.072897727        0.095018939| 0.072897727        0.201723485        0.080227273| 0.095018939        0.080227273        0.198522727|] Cmatrix=[0                  0                  0| 0                  0                  0| 0                  0                  0|]
New Line.89_91 Phases=3 bus1=89.1.2.3 bus2=91.1.2.3 Units=km Length=0.225 Rmatrix=[0.086666667         0.02907197        0.029545455|  0.02907197        0.087405303        0.029924242| 0.029545455        0.029924242        0.088371212|] Xmatrix=[0.204166667        0.072897727        0.095018939| 0.072897727        0.201723485        0.080227273| 0.095018939        0.080227273        0.198522727|] Cmatrix=[0                  0                  0| 0                  0                  0| 0                  0                  0|]
New Line.89_90 Phases=1 bus1=89.2 bus2=90.2 Units=km Length=0.25 Rmatrix=0.25174242 Xmatrix=0.25520833 Cmatrix=0
New Line.91_93 Phases=3 bus1=91.1.2.3 bus2=93.1.2.3 Units=km Length=0.225 Rmatrix=[0.086666667         0.02907197        0.029545455|  0.02907197        0.087405303        0.029924242| 0.029545455        0.029924242        0.088371212|] Xmatrix=[0.204166667        0.072897727        0.095018939| 0.072897727        0.201723485        0.080227273| 0.095018939        0.080227273        0.198522727|] Cmatrix=[0                  0                  0| 0                  0                  0| 0                  0                  0|]
New Line.91_92 Phases=1 bus1=91.3 bus2=92.3 Units=km Length=0.3 Rmatrix=0.25174242 Xmatrix=0.25520833 Cmatrix=0
New Line.93_94 Phases=1 bus1=93.1 bus2=94.1 Units=km Length=0.275 Rmatrix=0.25174242 Xmatrix=0.25520833 Cmatrix=0
New Line.93_95 Phases=3 bus1=93.1.2.3 bus2=95.1.2.3 Units=km Length=0.3 Rmatrix=[0.086666667         0.02907197        0.029545455|  0.02907197        0.087405303        0.029924242| 0.029545455        0.029924242        0.088371212|] Xmatrix=[0.204166667        0.072897727        0.095018939| 0.072897727        0.201723485        0.080227273| 0.095018939        0.080227273        0.198522727|] Cmatrix=[0                  0                  0| 0                  0                  0| 0                  0                  0|]
New Line.95_96 Phases=1 bus1=95.2 bus2=96.2 Units=km Length=0.2 Rmatrix=0.25174242 Xmatrix=0.25520833 Cmatrix=0
New Line.98_99 Phases=3 bus1=98.1.2.3 bus2=99.1.2.3 Units=km Length=0.55 Rmatrix=[0.087405303         0.02907197        0.029924242|  0.02907197        0.086666667        0.029545455| 0.029924242        0.029545455        0.088371212|] Xmatrix=[0.201723485        0.072897727        0.080227273| 0.072897727        0.204166667        0.095018939| 0.080227273        0.095018939        0.198522727|] Cmatrix=[0                  0                  0| 0                  0                  0| 0                  0                  0|]
New Line.99_100 Phases=3 bus1=99.1.2.3 bus2=100.1.2.3 Units=km Length=0.3 Rmatrix=[0.087405303         0.02907197        0.029924242|  0.02907197        0.086666667        0.029545455| 0.029924242        0.029545455        0.088371212|] Xmatrix=[0.201723485        0.072897727        0.080227273| 0.072897727        0.204166667        0.095018939| 0.080227273        0.095018939        0.198522727|] Cmatrix=[0                  0                  0| 0                  0                  0| 0                  0                  0|]
New Line.100_450 Phases=3 bus1=100.1.2.3 bus2=450.1.2.3 Units=km Length=0.8 Rmatrix=[0.087405303         0.02907197        0.029924242|  0.02907197        0.086666667        0.029545455| 0.029924242        0.029545455        0.088371212|] Xmatrix=[0.201723485        0.072897727        0.080227273| 0.072897727        0.204166667        0.095018939| 0.080227273        0.095018939        0.198522727|] Cmatrix=[0                  0                  0| 0                  0                  0| 0                  0                  0|]
New Line.197_101 Phases=3 bus1=197.1.2.3 bus2=101.1.2.3 Units=km Length=0.25 Rmatrix=[ 0.087405303065    0.0290719700474    0.0299242420412| 0.0290719700474    0.0866666669172    0.0295454549573| 0.0299242420412    0.0295454549573    0.0883712120652|] Xmatrix=[ 0.201723485003    0.0728977269882    0.0802272730081| 0.0728977269882     0.204166667058     0.095018939023| 0.0802272730081     0.095018939023     0.198522726979|] Cmatrix=[0                  0                  0| 0                  0                  0| 0                  0                  0|]
New Line.101_105 Phases=3 bus1=101.1.2.3 bus2=105.1.2.3 Units=km Length=0.275 Rmatrix=[0.087405303         0.02907197        0.029924242|  0.02907197        0.086666667        0.029545455| 0.029924242        0.029545455        0.088371212|] Xmatrix=[0.201723485        0.072897727        0.080227273| 0.072897727        0.204166667        0.095018939| 0.080227273        0.095018939        0.198522727|] Cmatrix=[0                  0                  0| 0                  0                  0| 0                  0                  0|]
New Line.101_102 Phases=1 bus1=101.3 bus2=102.3 Units=km Length=0.225 Rmatrix=0.25174242 Xmatrix=0.25520833 Cmatrix=0
New Line.102_103 Phases=1 bus1=102.3 bus2=103.3 Units=km Length=0.325 Rmatrix=0.25174242 Xmatrix=0.25520833 Cmatrix=0
New Line.105_108 Phases=3 bus1=105.1.2.3 bus2=108.1.2.3 Units=km Length=0.325 Rmatrix=[0.087405303         0.02907197        0.029924242|  0.02907197        0.086666667        0.029545455| 0.029924242        0.029545455        0.088371212|] Xmatrix=[0.201723485        0.072897727        0.080227273| 0.072897727        0.204166667        0.095018939| 0.080227273        0.095018939        0.198522727|] Cmatrix=[0                  0                  0| 0                  0                  0| 0                  0                  0|]
New Line.105_106 Phases=1 bus1=105.2 bus2=106.2 Units=km Length=0.225 Rmatrix=0.25174242 Xmatrix=0.25520833 Cmatrix=0
New Line.103_104 Phases=1 bus1=103.3 bus2=104.3 Units=km Length=0.7 Rmatrix=0.25174242 Xmatrix=0.25520833 Cmatrix=0
New Line.106_107 Phases=1 bus1=106.2 bus2=107.2 Units=km Length=0.575 Rmatrix=0.25174242 Xmatrix=0.25520833 Cmatrix=0
New Line.108_300 Phases=3 bus1=108.1.2.3 bus2=300.1.2.3 Units=km Length=1 Rmatrix=[0.087405303         0.02907197        0.029924242|  0.02907197        0.086666667        0.029545455| 0.029924242        0.029545455        0.088371212|] Xmatrix=[0.201723485        0.072897727        0.080227273| 0.072897727        0.204166667        0.095018939| 0.080227273        0.095018939        0.198522727|] Cmatrix=[0                  0                  0| 0                  0                  0| 0                  0                  0|]
New Line.135_35 Phases=3 bus1=135.1.2.3 bus2=35.1.2.3 Units=km Length=0.375 Rmatrix=[0.0874053029779    0.0299242420059    0.0290719700024| 0.0299242420059    0.0883712119815    0.0295454549796| 0.0290719700024    0.0295454549796    0.0866666670183|] Xmatrix=[ 0.201723485001    0.0802272730007    0.0728977270132| 0.0802272730007     0.198522727024    0.0950189390224| 0.0728977270132    0.0950189390224     0.204166667011|] Cmatrix=[0                  0                  0| 0                  0                  0| 0                  0                  0|]
New Line.152_52 Phases=3 bus1=152.1.2.3 bus2=52.1.2.3 Units=km Length=0.4 Rmatrix=[0.0866666670547    0.0295454550371    0.0290719700258| 0.0295454550371    0.0883712121327    0.0299242420703| 0.0290719700258    0.0299242420703    0.0874053031013|] Xmatrix=[ 0.204166666888    0.0950189389442     0.072897726956| 0.0950189389442     0.198522726877    0.0802272729619|  0.072897726956    0.0802272729619     0.201723484926|] Cmatrix=[0                  0                  0| 0                  0                  0| 0                  0                  0|]
New Line.160r_67 Phases=3 bus1=160r.1.2.3 bus2=67.1.2.3 Units=km Length=0.35 Rmatrix=[0.0866666670001    0.0290719699999        0.029545455| 0.0290719699999    0.0874053029996        0.029924242|     0.029545455        0.029924242    0.0883712119998|] Xmatrix=[    0.204166667    0.0728977269998        0.095018939| 0.0728977269998        0.201723485    0.0802272729998|     0.095018939    0.0802272729998        0.198522727|] Cmatrix=[0                  0                  0| 0                  0                  0| 0                  0                  0|]
New Line.150r_149 Phases=3 bus1=150r.1.2.3 bus2=149.1.2.3 Units=km Length=0.001 Rmatrix=[0.001                  0                  0|     0              0.001                  0|     0                  0              0.001|] Xmatrix=[0                  0                  0| 0                  0                  0| 0                  0                  0|] Cmatrix=[0                  0                  0| 0                  0                  0| 0                  0                  0|]
New Transformer.reg1a Phases=3 Windings=2 Buses=[150 150r] Conns=[wye wye] kVs=[4.16        4.16] kVAs=[5000  5000] XHL=0.001 %Loadloss=1e-05 %Noloadloss=0 %imag=0 Ppm_Antifloat=0 sub=y
New Transformer.XFM1 Phases=3 Windings=2 XHL=2.72 %Noloadloss=0 %imag=0 Wdg=1 Bus=61s Conn=delta kV=4.16 kVA=150 %R=0.635 Wdg=2 Bus=610 Conn=delta kV=0.48 kVA=150 %R=0.635
New Transformer.reg2a Phases=1 Windings=2 Buses=[9.1 9r.1] Conns=[wye wye] kVs=[2.402       2.402] kVAs=[2000  2000] XHL=0.01 %Loadloss=1e-05 %Noloadloss=0 %imag=0 Ppm_Antifloat=0
New Transformer.reg3a Phases=1 Windings=2 Buses=[25.1 25r.1] Conns=[wye wye] kVs=[2.402       2.402] kVAs=[2000  2000] XHL=0.01 %Loadloss=1e-05 %Noloadloss=0 %imag=0 Ppm_Antifloat=0
New Transformer.reg4a Phases=1 Windings=2 Buses=[160.1 160r.1] Conns=[wye wye] kVs=[2.402       2.402] kVAs=[2000  2000] XHL=0.01 %Loadloss=1e-05 %Noloadloss=0 %imag=0 Ppm_Antifloat=0
New Transformer.reg3c Buses=[25.3 25r.3] %Noloadloss=0 %imag=0 Ppm_Antifloat=0 Like=reg3a
New Transformer.reg4b Buses=[160.2 160r.2] %Noloadloss=0 %imag=0 Ppm_Antifloat=0 Like=reg4a
New Transformer.reg4c Buses=[160.3 160r.3] %Noloadloss=0 %imag=0 Ppm_Antifloat=0 Like=reg4a
New XYCurve.myeff npts=4 Xarray=[0   25   75  100] Yarray=[1  1  1  1]
New XYCurve.mypvst npts=4 Xarray=[0.1         0.2         0.4           1] Yarray=[1  1  1  1]
New XYCurve.CurveFor_InvForPV_108.1_from_114.1 npts=6 Xarray=[0.5        0.95        0.98        1.02        1.05         1.5] Yarray=[1  1  0  0 -1 -1]
New Pvsystem.PV_108.1_from_114.1 phases=1 bus1=108.1 kv=2.4 irradiance=0.5 Pmpp=600.0003 kvar=0 kVA=600.0003 %cutin=0 %cutout=0 EffCurve=myeff P-TCurve=mypvst Vminpu=0.01
New Load.Load_150.2_model_1 Phases=1 bus1=150.2 Kv=2.4 Kw=0.016088 Model=1 Kvar=0 Vminpu=0.01
New Load.Load_149.1_model_1 Phases=1 bus1=149.1 Kv=2.4 Kw=0.010505 Model=1 Kvar=-0.019275 Vminpu=0.01
New Load.Load_149.3_model_1 Phases=1 bus1=149.3 Kv=2.4 Kw=0 Model=1 Kvar=0.011079 Vminpu=0.01
New Load.Load_1.1_model_1 Phases=1 bus1=1.1 Kv=2.4 Kw=40 Model=1 Kvar=20 Vminpu=0.01
New Load.Load_2.2_model_1 Phases=1 bus1=2.2 Kv=2.4 Kw=20 Model=1 Kvar=10 Vminpu=0.01
New Load.Load_7.1_model_1 Phases=1 bus1=7.1 Kv=2.4 Kw=20 Model=1 Kvar=10 Vminpu=0.01
New Load.Load_4.3_model_1 Phases=1 bus1=4.3 Kv=2.4 Kw=40 Model=1 Kvar=20 Vminpu=0.01
New Load.Load_12.2_model_1 Phases=1 bus1=12.2 Kv=2.4 Kw=20 Model=1 Kvar=10 Vminpu=0.01
New Load.Load_9.1_model_1 Phases=1 bus1=9.1 Kv=2.4 Kw=40 Model=1 Kvar=20 Vminpu=0.01
New Load.Load_16.3_model_1 Phases=1 bus1=16.3 Kv=2.4 Kw=40 Model=1 Kvar=20 Vminpu=0.01
New Load.Load_17.3_model_1 Phases=1 bus1=17.3 Kv=2.4 Kw=20 Model=1 Kvar=10 Vminpu=0.01
New Load.Load_19.1_model_1 Phases=1 bus1=19.1 Kv=2.4 Kw=40 Model=1 Kvar=20 Vminpu=0.01
New Load.Load_24.3_model_1 Phases=1 bus1=24.3 Kv=2.4 Kw=40 Model=1 Kvar=20 Vminpu=0.01
New Load.Load_31.3_model_1 Phases=1 bus1=31.3 Kv=2.4 Kw=20 Model=1 Kvar=10 Vminpu=0.01
New Load.Load_30.3_model_1 Phases=1 bus1=30.3 Kv=2.4 Kw=40 Model=1 Kvar=20 Vminpu=0.01
New Load.Load_32.3_model_1 Phases=1 bus1=32.3 Kv=2.4 Kw=20 Model=1 Kvar=10 Vminpu=0.01
New Load.Load_35.1_model_1 Phases=1 bus1=35.1 Kv=2.4 Kw=25.7735 Model=1 Kvar=-1.547 Vminpu=0.01
New Load.Load_35.2_model_1 Phases=1 bus1=35.2 Kv=2.4 Kw=14.2265 Model=1 Kvar=21.547 Vminpu=0.01
New Load.Load_39.2_model_1 Phases=1 bus1=39.2 Kv=2.4 Kw=20 Model=1 Kvar=10 Vminpu=0.01
New Load.Load_41.3_model_1 Phases=1 bus1=41.3 Kv=2.4 Kw=20 Model=1 Kvar=10 Vminpu=0.01
New Load.Load_42.1_model_1 Phases=1 bus1=42.1 Kv=2.4 Kw=20 Model=1 Kvar=10 Vminpu=0.01
New Load.Load_46.1_model_1 Phases=1 bus1=46.1 Kv=2.4 Kw=20 Model=1 Kvar=10 Vminpu=0.01
New Load.Load_49.1_model_1 Phases=1 bus1=49.1 Kv=2.4 Kw=35 Model=1 Kvar=25 Vminpu=0.01
New Load.Load_49.2_model_1 Phases=1 bus1=49.2 Kv=2.4 Kw=70 Model=1 Kvar=50 Vminpu=0.01
New Load.Load_49.3_model_1 Phases=1 bus1=49.3 Kv=2.4 Kw=35 Model=1 Kvar=20 Vminpu=0.01
New Load.Load_50.3_model_1 Phases=1 bus1=50.3 Kv=2.4 Kw=40 Model=1 Kvar=20 Vminpu=0.01
New Load.Load_51.1_model_1 Phases=1 bus1=51.1 Kv=2.4 Kw=20 Model=1 Kvar=10 Vminpu=0.01
New Load.Load_52.1_model_1 Phases=1 bus1=52.1 Kv=2.4 Kw=40 Model=1 Kvar=20 Vminpu=0.01
New Load.Load_53.1_model_1 Phases=1 bus1=53.1 Kv=2.4 Kw=40 Model=1 Kvar=20 Vminpu=0.01
New Load.Load_56.2_model_1 Phases=1 bus1=56.2 Kv=2.4 Kw=20 Model=1 Kvar=10 Vminpu=0.01
New Load.Load_60.1_model_1 Phases=1 bus1=60.1 Kv=2.4 Kw=20 Model=1 Kvar=10 Vminpu=0.01
New Load.Load_59.2_model_1 Phases=1 bus1=59.2 Kv=2.4 Kw=20 Model=1 Kvar=10 Vminpu=0.01
New Load.Load_63.1_model_1 Phases=1 bus1=63.1 Kv=2.4 Kw=40 Model=1 Kvar=20 Vminpu=0.01
New Load.Load_66.3_model_1 Phases=1 bus1=66.3 Kv=2.4 Kw=75 Model=1 Kvar=35 Vminpu=0.01
New Load.Load_68.1_model_1 Phases=1 bus1=68.1 Kv=2.4 Kw=20 Model=1 Kvar=10 Vminpu=0.01
New Load.Load_69.1_model_1 Phases=1 bus1=69.1 Kv=2.4 Kw=40 Model=1 Kvar=20 Vminpu=0.01
New Load.Load_70.1_model_1 Phases=1 bus1=70.1 Kv=2.4 Kw=20 Model=1 Kvar=10 Vminpu=0.01
New Load.Load_71.1_model_1 Phases=1 bus1=71.1 Kv=2.4 Kw=40 Model=1 Kvar=20 Vminpu=0.01
New Load.Load_73.3_model_1 Phases=1 bus1=73.3 Kv=2.4 Kw=40 Model=1 Kvar=20 Vminpu=0.01
New Load.Load_75.3_model_1 Phases=1 bus1=75.3 Kv=2.4 Kw=40 Model=1 Kvar=20 Vminpu=0.01
New Load.Load_77.2_model_1 Phases=1 bus1=77.2 Kv=2.4 Kw=40 Model=1 Kvar=20 Vminpu=0.01
New Load.Load_86.2_model_1 Phases=1 bus1=86.2 Kv=2.4 Kw=20 Model=1 Kvar=10 Vminpu=0.01
New Load.Load_80.2_model_1 Phases=1 bus1=80.2 Kv=2.4 Kw=40 Model=1 Kvar=20 Vminpu=0.01
New Load.Load_82.1_model_1 Phases=1 bus1=82.1 Kv=2.4 Kw=40 Model=1 Kvar=20 Vminpu=0.01
New Load.Load_84.3_model_1 Phases=1 bus1=84.3 Kv=2.4 Kw=20 Model=1 Kvar=10 Vminpu=0.01
New Load.Load_83.3_model_1 Phases=1 bus1=83.3 Kv=2.4 Kw=20 Model=1 Kvar=10 Vminpu=0.01
New Load.Load_85.3_model_1 Phases=1 bus1=85.3 Kv=2.4 Kw=40 Model=1 Kvar=20 Vminpu=0.01
New Load.Load_87.2_model_1 Phases=1 bus1=87.2 Kv=2.4 Kw=40 Model=1 Kvar=20 Vminpu=0.01
New Load.Load_88.1_model_1 Phases=1 bus1=88.1 Kv=2.4 Kw=40 Model=1 Kvar=20 Vminpu=0.01
New Load.Load_92.3_model_1 Phases=1 bus1=92.3 Kv=2.4 Kw=40 Model=1 Kvar=20 Vminpu=0.01
New Load.Load_94.1_model_1 Phases=1 bus1=94.1 Kv=2.4 Kw=40 Model=1 Kvar=20 Vminpu=0.01
New Load.Load_95.2_model_1 Phases=1 bus1=95.2 Kv=2.4 Kw=20 Model=1 Kvar=10 Vminpu=0.01
New Load.Load_96.2_model_1 Phases=1 bus1=96.2 Kv=2.4 Kw=20 Model=1 Kvar=10 Vminpu=0.01
New Load.Load_98.1_model_1 Phases=1 bus1=98.1 Kv=2.4 Kw=40 Model=1 Kvar=20 Vminpu=0.01
New Load.Load_99.2_model_1 Phases=1 bus1=99.2 Kv=2.4 Kw=40 Model=1 Kvar=20 Vminpu=0.01
New Load.Load_102.3_model_1 Phases=1 bus1=102.3 Kv=2.4 Kw=20 Model=1 Kvar=10 Vminpu=0.01
New Load.Load_103.3_model_1 Phases=1 bus1=103.3 Kv=2.4 Kw=40 Model=1 Kvar=20 Vminpu=0.01
New Load.Load_104.3_model_1 Phases=1 bus1=104.3 Kv=2.4 Kw=40 Model=1 Kvar=20 Vminpu=0.01
New Load.Load_106.2_model_1 Phases=1 bus1=106.2 Kv=2.4 Kw=40 Model=1 Kvar=20 Vminpu=0.01
New Load.Load_108.1_model_1 Phases=1 bus1=108.1 Kv=2.4 Kw=80 Model=1 Kvar=40 Vminpu=0.01
New Load.Load_107.2_model_1 Phases=1 bus1=107.2 Kv=2.4 Kw=40 Model=1 Kvar=20 Vminpu=0.01
New Load.Load_6.3_model_2 Phases=1 bus1=6.3 Kv=2.4 Kw=40 Model=2 Kvar=20 Vminpu=0.01
New Load.Load_34.3_model_2 Phases=1 bus1=34.3 Kv=2.4 Kw=40 Model=2 Kvar=20 Vminpu=0.01
New Load.Load_11.1_model_2 Phases=1 bus1=11.1 Kv=2.4 Kw=40 Model=2 Kvar=20 Vminpu=0.01
New Load.Load_22.2_model_2 Phases=1 bus1=22.2 Kv=2.4 Kw=40 Model=2 Kvar=20 Vminpu=0.01
New Load.Load_29.1_model_2 Phases=1 bus1=29.1 Kv=2.4 Kw=40 Model=2 Kvar=20 Vminpu=0.01
New Load.Load_37.1_model_2 Phases=1 bus1=37.1 Kv=2.4 Kw=40 Model=2 Kvar=20 Vminpu=0.01
New Load.Load_43.2_model_2 Phases=1 bus1=43.2 Kv=2.4 Kw=40 Model=2 Kvar=20 Vminpu=0.01
New Load.Load_48.1_model_2 Phases=1 bus1=48.1 Kv=2.4 Kw=70 Model=2 Kvar=50 Vminpu=0.01
New Load.Load_48.2_model_2 Phases=1 bus1=48.2 Kv=2.4 Kw=70 Model=2 Kvar=50 Vminpu=0.01
New Load.Load_48.3_model_2 Phases=1 bus1=48.3 Kv=2.4 Kw=70 Model=2 Kvar=50 Vminpu=0.01
New Load.Load_55.1_model_2 Phases=1 bus1=55.1 Kv=2.4 Kw=20 Model=2 Kvar=10 Vminpu=0.01
New Load.Load_62.3_model_2 Phases=1 bus1=62.3 Kv=2.4 Kw=40 Model=2 Kvar=20 Vminpu=0.01
New Load.Load_65.1_model_2 Phases=1 bus1=65.1 Kv=2.4 Kw=45.2831 Model=2 Kvar=47.6036 Vminpu=0.01
New Load.Load_65.2_model_2 Phases=1 bus1=65.2 Kv=2.4 Kw=35 Model=2 Kvar=25 Vminpu=0.01
New Load.Load_65.3_model_2 Phases=1 bus1=65.3 Kv=2.4 Kw=59.7169 Model=2 Kvar=27.3964 Vminpu=0.01
New Load.Load_74.3_model_2 Phases=1 bus1=74.3 Kv=2.4 Kw=40 Model=2 Kvar=20 Vminpu=0.01
New Load.Load_79.1_model_2 Phases=1 bus1=79.1 Kv=2.4 Kw=40 Model=2 Kvar=20 Vminpu=0.01
New Load.Load_100.3_model_2 Phases=1 bus1=100.3 Kv=2.4 Kw=40 Model=2 Kvar=20 Vminpu=0.01
New Load.Load_108.1_model_2 Phases=1 bus1=108.1 Kv=2.4 Kw=40 Model=2 Kvar=20 Vminpu=0.01
New Load.Load_5.3_model_5 Phases=1 bus1=5.3 Kv=2.4 Kw=20 Model=5 Kvar=10 Vminpu=0.01
New Load.Load_10.1_model_5 Phases=1 bus1=10.1 Kv=2.4 Kw=20 Model=5 Kvar=10 Vminpu=0.01
New Load.Load_20.1_model_5 Phases=1 bus1=20.1 Kv=2.4 Kw=40 Model=5 Kvar=20 Vminpu=0.01
New Load.Load_28.1_model_5 Phases=1 bus1=28.1 Kv=2.4 Kw=40 Model=5 Kvar=20 Vminpu=0.01
New Load.Load_33.1_model_5 Phases=1 bus1=33.1 Kv=2.4 Kw=40 Model=5 Kvar=20 Vminpu=0.01
New Load.Load_38.2_model_5 Phases=1 bus1=38.2 Kv=2.4 Kw=20 Model=5 Kvar=10 Vminpu=0.01
New Load.Load_45.1_model_5 Phases=1 bus1=45.1 Kv=2.4 Kw=20 Model=5 Kvar=10 Vminpu=0.01
New Load.Load_47.1_model_5 Phases=1 bus1=47.1 Kv=2.4 Kw=35 Model=5 Kvar=25 Vminpu=0.01
New Load.Load_47.2_model_5 Phases=1 bus1=47.2 Kv=2.4 Kw=35 Model=5 Kvar=25 Vminpu=0.01
New Load.Load_47.3_model_5 Phases=1 bus1=47.3 Kv=2.4 Kw=35 Model=5 Kvar=25 Vminpu=0.01
New Load.Load_58.2_model_5 Phases=1 bus1=58.2 Kv=2.4 Kw=20 Model=5 Kvar=10 Vminpu=0.01
New Load.Load_64.2_model_5 Phases=1 bus1=64.2 Kv=2.4 Kw=75 Model=5 Kvar=35 Vminpu=0.01
New Load.Load_76.1_model_5 Phases=1 bus1=76.1 Kv=2.4 Kw=96.1603 Model=5 Kvar=54.8964 Vminpu=0.01
New Load.Load_76.2_model_5 Phases=1 bus1=76.2 Kv=2.4 Kw=78.8397 Model=5 Kvar=75.1036 Vminpu=0.01
New Load.Load_76.3_model_5 Phases=1 bus1=76.3 Kv=2.4 Kw=70 Model=5 Kvar=50 Vminpu=0.01
New Load.Load_90.2_model_5 Phases=1 bus1=90.2 Kv=2.4 Kw=40 Model=5 Kvar=20 Vminpu=0.01
New Load.Load_108.1_model_5 Phases=1 bus1=108.1 Kv=2.4 Kw=20 Model=5 Kvar=10 Vminpu=0.01
New Invcontrol.InvForPV_108.1_from_114.1 PVSystemList=PV_108.1_from_114.1 Mode=VOLTVAR vvc_curve1=CurveFor_InvForPV_108.1_from_114.1 DeltaQ_factor=0.01


! Let DSS estimate the voltage bases
Set voltagebases=[4.16 0.48]
Calcvoltagebases     ! This also establishes the bus list

Buscoords OutputDSS_buscoords.csv


set maxiterations=1000
